Circuit: * C:\Users\ekultho\Documents\Personal\CG 490\SPICE Simulations\60V Zener Diode --Thermal Config.asc

WARNING: Specified period is not longer than the sum of Trise, Tfall, and Ton for v1.  Increasing period to 4.55661e-313
Direct Newton iteration for .op point succeeded.
Heightened Def Con from 0.00100188 to 0.00100188

Date: Thu Oct 24 12:18:54 2019
Total elapsed time: 3.973 seconds.

tnom = 27
temp = 27
method = modified trap
totiter = 145846
traniter = 145841
tranpoints = 58273
accept = 40641
rejected = 17633
matrix size = 65
fillins = 70
solver = Alternate
Thread vector: 39.1/13.5[3] 2.7/2.0[3] 6.0/3.1[3] 0.8/1.5[1]  2592/500
Matrix Compiler1: 11.24 KB object code size  2.3/1.5/[0.9]
Matrix Compiler2: off  [1.0]/1.3/1.1

