Circuit: * D:\Users\Thomas\Documents\Projects\CG-490\SPICE Simulations\60V Zener Diode --Thermal Config.asc

WARNING: Specified period is not longer than the sum of Trise, Tfall, and Ton for v1.  Increasing period to 4.59437e-312
Direct Newton iteration for .op point succeeded.

Date: Wed Nov 13 21:10:18 2019
Total elapsed time: 2.811 seconds.

tnom = 27
temp = 27
method = Gear
totiter = 87376
traniter = 87371
tranpoints = 38185
accept = 26882
rejected = 11303
matrix size = 65
fillins = 70
solver = Alternate
Thread vector: 44.8/27.4[3] 3.8/2.4[3] 7.8/3.9[3] 1.2/1.7[1]  2592/500
Matrix Compiler1: 11.24 KB object code size  2.9/2.0/[1.8]
Matrix Compiler2: 8.56 KB object code size  1.3/3.2/[0.9]

