Circuit: * C:\Users\ekultho\Documents\Personal\CG 490\SPICE Simulations\60V Zener Diode --Thermal Config.asc

WARNING: Specified period is not longer than the sum of Trise, Tfall, and Ton for v1.  Increasing period to 4.88538e-314
Direct Newton iteration for .op point succeeded.

Date: Fri Oct 18 14:45:29 2019
Total elapsed time: 6.288 seconds.

tnom = 27
temp = 27
method = modified trap
totiter = 103150
traniter = 103145
tranpoints = 36645
accept = 25588
rejected = 11057
matrix size = 65
fillins = 70
solver = Alternate
Thread vector: 86.4/44.6[3] 7.6/5.6[3] 17.0/9.5[3] 1.8/4.6[1]  2592/500
Matrix Compiler1: 11.24 KB object code size  7.4/4.5/[2.5]
Matrix Compiler2: 8.56 KB object code size  2.8/3.2/[1.7]

