Circuit: * C:\Users\Thomas Kulin\Documents\Projects\CG-490\SPICE Simulations\60V Zener Diode Config.asc

WARNING: Specified period is not longer than the sum of Trise, Tfall, and Ton for v1.  Increasing period to 0.0050002
Instance "m:m1:1": Width narrower than recommended for a level 3 MOSFET.
Direct Newton iteration for .op point succeeded.
Heightened Def Con from 0.001 to 0.00100001

Date: Sun Oct 27 12:43:15 2019
Total elapsed time: 0.924 seconds.

tnom = 27
temp = 27
method = modified trap
totiter = 83573
traniter = 83540
tranpoints = 40655
accept = 28802
rejected = 11854
matrix size = 19
fillins = 4
solver = Normal
Matrix Compiler1: 1.71 KB object code size  0.4/0.3/[0.1]
Matrix Compiler2: 1.66 KB object code size  0.2/0.3/[0.2]

