Circuit: * C:\Users\ekultho\Documents\Personal\CG 490\SPICE Simulations\60V Zener Diode Config.asc

WARNING: Specified period is not longer than the sum of Trise, Tfall, and Ton for v1.  Increasing period to 1.36055e-312
Instance "m:m1:1": Width narrower than recommended for a level 3 MOSFET.
Direct Newton iteration for .op point succeeded.

Date: Wed Oct 23 17:23:21 2019
Total elapsed time: 0.773 seconds.

tnom = 27
temp = 27
method = modified trap
totiter = 82981
traniter = 82948
tranpoints = 40352
accept = 28621
rejected = 11731
matrix size = 19
fillins = 4
solver = Alternate
Matrix Compiler1: off  [0.5]/1.0/0.9
Matrix Compiler2: 1.90 KB object code size  0.4/1.0/[0.3]

