Circuit: * C:\Users\ekultho\Documents\Personal\CG 490\SPICE Simulations\60V Zener Diode Config.asc

Error on line 8 : m2 nc_01 nc_02 nc_03 nc_04 nc_05 ipb180n10s4_02
	 Unable to find definition of model ""
WARNING: Specified period is not longer than the sum of Trise, Tfall, and Ton for v1.  Increasing period to 9.76267e-313
WARNING: Node NC_02 is floating.
WARNING: Node NC_03 is floating.
WARNING: Node NC_04 is floating.

WARNING: Less than two connections to node NC_01.  This node is used by M2.
WARNING: Less than two connections to node NC_03.  This node is used by M2.
Instance "m:m1:1": Width narrower than recommended for a level 3 MOSFET.
Direct Newton iteration for .op point succeeded.

Date: Wed Oct 16 22:09:04 2019
Total elapsed time: 14.477 seconds.

tnom = 27
temp = 27
method = modified trap
totiter = 83522
traniter = 83489
tranpoints = 40617
accept = 28778
rejected = 11839
matrix size = 23
fillins = 4
solver = Alternate
Matrix Compiler1: 2.78 KB object code size  1.1/1.5/[0.7]
Matrix Compiler2: 2.30 KB object code size  0.6/1.8/[0.4]

