Circuit: * C:\Users\ekultho\Documents\Personal\CG 490\SPICE Simulations\60V Zener Diode --Thermal Config.asc

WARNING: Specified period is not longer than the sum of Trise, Tfall, and Ton for v1.  Increasing period to 4.50231e-312
Direct Newton iteration for .op point succeeded.

Date: Tue Oct 22 13:46:23 2019
Total elapsed time: 10.195 seconds.

tnom = 27
temp = 27
method = modified trap
totiter = 147452
traniter = 147447
tranpoints = 59173
accept = 41277
rejected = 17896
matrix size = 65
fillins = 70
solver = Alternate
Thread vector: 73.4/36.8[3] 6.3/4.8[3] 14.3/7.1[3] 1.7/3.7[1]  2592/500
Matrix Compiler1: 11.24 KB object code size  5.5/3.6/[2.1]
Matrix Compiler2: 8.56 KB object code size  2.3/2.8/[1.3]

