Circuit: * C:\Users\Thomas Kulin\Documents\Projects\CG-490\SPICE Simulations\60V Zener Diode --Thermal Config.asc

WARNING: Specified period is not longer than the sum of Trise, Tfall, and Ton for v1.  Increasing period to 0.0050002
Direct Newton iteration for .op point succeeded.
Heightened Def Con from 1.03738e-010 to 8.10374e-009

Date: Tue Oct 22 19:43:40 2019
Total elapsed time: 3.653 seconds.

tnom = 27
temp = 27
method = modified trap
totiter = 115919
traniter = 115900
tranpoints = 42490
accept = 29693
rejected = 12798
matrix size = 65
fillins = 70
solver = Normal
Thread vector: 41.9/14.3[3] 2.1/2.8[1] 7.9/3.6[3] 0.4/2.3[1]  2592/500
Matrix Compiler1: 8.89 KB object code size  2.1/1.0/[0.7]
Matrix Compiler2: 7.43 KB object code size  0.9/1.2/[0.7]

