Circuit: * C:\Users\ekultho\Documents\Personal\CG 490\SPICE Simulations\60V Zener Diode Config.asc

WARNING: Specified period is not longer than the sum of Trise, Tfall, and Ton for v1.  Increasing period to 4.51326e-312
Direct Newton iteration for .op point succeeded.

Date: Wed Oct 16 17:34:37 2019
Total elapsed time: 2.741 seconds.

tnom = 27
temp = 27
method = modified trap
totiter = 128269
traniter = 128264
tranpoints = 50548
accept = 35171
rejected = 15377
matrix size = 36
fillins = 61
solver = Alternate
Matrix Compiler1: 7.76 KB object code size  1.5/0.9/[0.7]
Matrix Compiler2: 4.52 KB object code size  0.5/0.6/[0.4]

