Circuit: * C:\Users\ekultho\Documents\Personal\CG 490\SPICE Simulations\60V Zener Diode --Thermal Config.asc

WARNING: Specified period is not longer than the sum of Trise, Tfall, and Ton for v1.  Increasing period to 9.89787e-313
Direct Newton iteration for .op point succeeded.

Date: Thu Oct 17 11:00:45 2019
Total elapsed time: 4.481 seconds.

tnom = 27
temp = 27
method = modified trap
totiter = 147452
traniter = 147447
tranpoints = 59173
accept = 41277
rejected = 17896
matrix size = 65
fillins = 70
solver = Alternate
Thread vector: 41.4/13.9[3] 3.6/2.0[3] 6.9/3.0[3] 1.3/1.4[1]  2592/500
Matrix Compiler1:     493 opcodes  2.3/[1.5]/2.0
Matrix Compiler2: off  [0.9]/1.2/1.2

