Circuit: * C:\Users\ekultho\Documents\Personal\CG 490\AntiParallel Diode Config.asc

WARNING: Specified period is not longer than the sum of Trise, Tfall, and Ton for v1.  Increasing period to 3.31504e-312
Instance "m:m1:1": Width narrower than recommended for a level 3 MOSFET.
Direct Newton iteration for .op point succeeded.

Date: Mon Sep 30 09:33:58 2019
Total elapsed time: 0.561 seconds.

tnom = 27
temp = 27
method = modified trap
totiter = 77257
traniter = 77244
tranpoints = 37707
accept = 26721
rejected = 10986
matrix size = 20
fillins = 6
solver = Alternate
Matrix Compiler1: 2.49 KB object code size  0.5/0.3/[0.1]
Matrix Compiler2: 2.05 KB object code size  0.2/0.3/[0.2]

