Circuit: * C:\Users\ekultho\Documents\Personal\CG 490\SPICE Simulations\AntiParallel Diode Config.asc

WARNING: Specified period is not longer than the sum of Trise, Tfall, and Ton for v1.  Increasing period to 2.02261e-312
Instance "m:m1:1": Width narrower than recommended for a level 3 MOSFET.
Direct Newton iteration for .op point succeeded.

Date: Fri Oct 25 15:25:42 2019
Total elapsed time: 1.937 seconds.

tnom = 27
temp = 27
method = modified trap
totiter = 126334
traniter = 126313
tranpoints = 59435
accept = 41976
rejected = 17459
matrix size = 21
fillins = 8
solver = Alternate
Matrix Compiler1: 2.66 KB object code size  1.6/1.3/[0.8]
Matrix Compiler2: 2.17 KB object code size  0.9/1.0/[0.7]

