Circuit: * C:\Users\ekultho\Documents\Personal\CG 490\SPICE Simulations\AntiParallel Diode Config.asc

WARNING: Specified period is not longer than the sum of Trise, Tfall, and Ton for v1.  Increasing period to 1.36036e-312
Instance "m:m1:1": Width narrower than recommended for a level 3 MOSFET.
Direct Newton iteration for .op point succeeded.

Date: Wed Oct 23 17:23:16 2019
Total elapsed time: 0.425 seconds.

tnom = 27
temp = 27
method = modified trap
totiter = 57094
traniter = 57083
tranpoints = 27828
accept = 20361
rejected = 7467
matrix size = 19
fillins = 4
solver = Alternate
Matrix Compiler1: 2.33 KB object code size  0.4/0.3/[0.3]
Matrix Compiler2: 1.93 KB object code size  0.2/0.2/[0.2]

