Circuit: * C:\Users\ekultho\Documents\Personal\CG 490\SPICE Simulations\Diodeless Config.asc

WARNING: Specified period is not longer than the sum of Trise, Tfall, and Ton for v1.  Increasing period to 9.14686e-314
Instance "m:m1:1": Width narrower than recommended for a level 3 MOSFET.
Direct Newton iteration for .op point succeeded.

Date: Wed Oct 23 16:57:15 2019
Total elapsed time: 1.186 seconds.

tnom = 27
temp = 27
method = modified trap
totiter = 138681
traniter = 138674
tranpoints = 65497
accept = 45973
rejected = 19524
matrix size = 18
fillins = 4
solver = Alternate
Matrix Compiler1: 2.17 KB object code size  0.4/0.3/[0.1]
Matrix Compiler2: 1.81 KB object code size  0.2/0.3/[0.2]

