Circuit: * C:\Users\Thomas Kulin\Documents\Projects\CG-490\SPICE Simulations\Draft1.asc

Direct Newton iteration for .op point succeeded.

Date: Thu Oct 24 22:04:56 2019
Total elapsed time: 0.123 seconds.

tnom = 27
temp = 27
method = modified trap
totiter = 2963
traniter = 2958
tranpoints = 1480
accept = 1359
rejected = 121
matrix size = 5
fillins = 0
solver = Normal
Matrix Compiler1: off  [0.0]/0.1/0.0
Matrix Compiler2:      28 opcodes  0.1/[0.0]/0.1

