Circuit: * C:\Users\Thomas\Documents\Projects\CG-490\SPICE Simulations\OpticalSwitch.asc

Direct Newton iteration failed to find .op point.  (Use ".option noopiter" to skip.)
Starting Gmin stepping
Gmin = 10
Gmin = 1.07374
Gmin = 0.115292
Gmin = 0.0123794
Gmin = 0.00132923
Gmin = 0.000142725
Gmin = 1.5325e-005
Gmin = 1.6455e-006
Gmin = 1.76685e-007
Gmin = 1.89714e-008
Gmin = 2.03704e-009
Gmin = 2.18725e-010
Gmin = 2.34854e-011
Gmin = 2.52173e-012
Gmin = 2.70769e-013
Gmin = 0
Gmin stepping succeeded in finding the operating point.


Date: Sun Sep 12 15:53:28 2021
Total elapsed time: 0.121 seconds.

tnom = 27
temp = 27
method = Gear
totiter = 4674
traniter = 4227
tranpoints = 1681
accept = 1514
rejected = 167
matrix size = 35
fillins = 38
solver = Alternate
Matrix Compiler1: 4.71 KB object code size  0.9/0.8/[0.7]
Matrix Compiler2: 3.88 KB object code size  0.6/0.7/[0.5]

