Circuit: * C:\Users\ekultho\Documents\Personal\CG 490\SPICE Simulations\OpticalSwitch.asc

Direct Newton iteration failed to find .op point.  (Use ".option noopiter" to skip.)
Starting Gmin stepping
Gmin = 10
Gmin = 1.07374
Gmin = 0.115292
Gmin = 0.0123794
Gmin = 0.00132923
Gmin = 0.000142725
Gmin = 1.5325e-005
Gmin = 1.6455e-006
vernier = 0.5
vernier = 0.25
vernier = 0.125
Gmin = 1.33369e-006
vernier = 0.166667
vernier = 0.222222
Gmin = 8.81033e-007
vernier = 0.296296
Gmin = 4.62235e-007
vernier = 0.395061
vernier = 0.526748
Gmin = 1.6015e-007
vernier = 0.702331
vernier = 0.936441
Gmin = 3.11062e-008
vernier = 1
Gmin = 3.51537e-009
Gmin = 3.7746e-010
Gmin = 4.05295e-011
Gmin = 4.35182e-012
Gmin = 4.67273e-013
Gmin = 0
Gmin stepping succeeded in finding the operating point.


Date: Fri Nov 22 16:41:47 2019
Total elapsed time: 0.200 seconds.

tnom = 27
temp = 27
method = Gear
totiter = 4742
traniter = 3854
tranpoints = 1529
accept = 1402
rejected = 127
matrix size = 35
fillins = 44
solver = Alternate
Matrix Compiler1: 4.95 KB object code size  0.9/0.7/[0.6]
Matrix Compiler2: off  [0.6]/0.7/0.8

