Circuit: * D:\Users\Thomas\Documents\Projects\CG-490\SPICE Simulations\OpticalSwitch.asc

Direct Newton iteration for .op point succeeded.

Date: Mon Mar 02 20:44:10 2020
Total elapsed time: 0.123 seconds.

tnom = 27
temp = 27
method = modified trap
totiter = 3222
traniter = 3176
tranpoints = 1264
accept = 1198
rejected = 66
matrix size = 35
fillins = 46
solver = Alternate
Matrix Compiler1: 5.05 KB object code size  1.0/0.8/[0.5]
Matrix Compiler2: 4.04 KB object code size  0.6/0.9/[0.6]

