Circuit: * C:\Users\ekultho\Documents\Personal\CG 490\SPICE Simulations\OpticalSwitch.asc

Direct Newton iteration for .op point succeeded.

Date: Tue Feb 04 13:23:39 2020
Total elapsed time: 0.101 seconds.

tnom = 27
temp = 27
method = modified trap
totiter = 4917
traniter = 4876
tranpoints = 1679
accept = 1502
rejected = 177
matrix size = 35
fillins = 45
solver = Alternate
Matrix Compiler1: 5.52 KB object code size  1.0/0.7/[0.4]
Matrix Compiler2: 4.13 KB object code size  0.4/0.6/[0.3]

