Circuit: * D:\Users\Thomas\Documents\Projects\CG-490\SPICE Simulations\OpticalSwitch.asc

Direct Newton iteration for .op point succeeded.

Date: Fri Nov 22 22:42:58 2019
Total elapsed time: 0.115 seconds.

tnom = 27
temp = 27
method = modified trap
totiter = 4029
traniter = 3983
tranpoints = 1471
accept = 1345
rejected = 126
matrix size = 35
fillins = 46
solver = Alternate
Matrix Compiler1: 5.05 KB object code size  1.1/0.8/[0.6]
Matrix Compiler2: 4.04 KB object code size  0.6/0.8/[0.5]

