Circuit: * D:\Users\Thomas\Documents\Projects\CG-490\SPICE Simulations\OpticalSwitch.asc

Direct Newton iteration for .op point succeeded.

Date: Thu Mar 12 20:27:41 2020
Total elapsed time: 0.116 seconds.

tnom = 27
temp = 27
method = modified trap
totiter = 3584
traniter = 3544
tranpoints = 1367
accept = 1275
rejected = 92
matrix size = 35
fillins = 46
solver = Alternate
Matrix Compiler1: 5.07 KB object code size  1.1/0.8/[0.6]
Matrix Compiler2: 4.08 KB object code size  0.6/0.8/[0.5]

