Circuit: * C:\Users\Thomas Kulin\Documents\Projects\CG-490\SPICE Simulations\OpticalSwitch.asc

Direct Newton iteration failed to find .op point.  (Use ".option noopiter" to skip.)
Starting Gmin stepping
Gmin = 10
Gmin = 1.07374
Gmin = 0.115292
Gmin = 0.0123794
Gmin = 0.00132923
Gmin = 0.000142725
Gmin = 1.5325e-005
Gmin = 1.6455e-006
Gmin = 1.76685e-007
Gmin = 1.89714e-008
Gmin = 2.03704e-009
Gmin = 2.18725e-010
Gmin = 2.34854e-011
Gmin = 2.52173e-012
Gmin = 2.70769e-013
Gmin = 0
Gmin stepping succeeded in finding the operating point.


Date: Sat Feb 29 15:22:07 2020
Total elapsed time: 0.278 seconds.

tnom = 27
temp = 27
method = modified trap
totiter = 8291
traniter = 7848
tranpoints = 2432
accept = 2049
rejected = 383
matrix size = 37
fillins = 46
solver = Alternate
Matrix Compiler1: 5.16 KB object code size  1.1/0.8/[0.5]
Matrix Compiler2: 4.26 KB object code size  0.7/0.9/[0.5]

