Circuit: * C:\Users\ekultho\Documents\Personal\CG 490\SPICE Simulations\PowerSwitch V1.asc

WARNING: Specified period is not longer than the sum of Trise, Tfall, and Ton for v1.  Increasing period to 4.28861e-312
WARNING: Less than two connections to node NC_02.  This node is used by V:M1:LG.
WARNING: Less than two connections to node M1:SX.  This node is used by V:M1:_SENSE2.
Direct Newton iteration for .op point succeeded.

Date: Fri Nov 22 13:44:58 2019
Total elapsed time: 3.893 seconds.

tnom = 27
temp = 27
method = Gear
totiter = 72115
traniter = 72098
tranpoints = 31535
accept = 22052
rejected = 9483
matrix size = 126
fillins = 192
solver = Alternate
Thread vector: 85.2/35.4[5] 5.8/2.4[5] 19.2/3.6[5] 2.6/3.4[1]  2592/500
Matrix Compiler1: 24.36 KB object code size  5.7/4.4/[3.8]
Matrix Compiler2: 15.90 KB object code size  2.2/3.8/[1.8]

