Circuit: * C:\Users\ekultho\Documents\Personal\CG 490\SPICE Simulations\PowerSwitch V1.asc

WARNING: Specified period is not longer than the sum of Trise, Tfall, and Ton for v1.  Increasing period to 5.37663e-312
ERROR: Node M2:TB is floating and connected to current source G:M2:_TH

WARNING: Less than two connections to node NC_02.  This node is used by V:M1:LG.
WARNING: Less than two connections to node M1:SX.  This node is used by V:M1:_SENSE2.
Direct Newton iteration for .op point succeeded.

Date: Mon Jan 06 15:39:47 2020
Total elapsed time: 3.864 seconds.

tnom = 27
temp = 27
method = Gear
totiter = 76883
traniter = 76866
tranpoints = 33915
accept = 24451
rejected = 9464
matrix size = 128
fillins = 192
solver = Alternate
Thread vector: 55.2/24.7[5] 10.1/3.2[5] 20.3/6.1[5] 2.0/2.5[1]  2592/500
Matrix Compiler1: 24.38 KB object code size  14.2/9.4/[4.8]
Matrix Compiler2: 16.00 KB object code size  5.3/6.6/[1.1]

