Circuit: * C:\Users\ekultho\Documents\Personal\CG 490\SPICE Simulations\PowerSwitch V1.asc

WARNING: Specified period is not longer than the sum of Trise, Tfall, and Ton for v1.  Increasing period to 2.45654e-312
WARNING: Node M2:1:OX2 is floating.
ERROR: Node M2:TB is floating and connected to current source G:M2:_TH

WARNING: Less than two connections to node M1:SX.  This node is used by V:M1:_SENSE2.
Direct Newton iteration for .op point succeeded.

Date: Tue Oct 29 15:31:20 2019
Total elapsed time: 6.095 seconds.

tnom = 27
temp = 27
method = modified trap
totiter = 57993
traniter = 57987
tranpoints = 22201
accept = 16466
rejected = 5735
matrix size = 126
fillins = 113
solver = Alternate
Thread vector: 115.0/52.4[5] 12.1/7.2[5] 29.6/17.6[5] 3.3/5.5[1]  2592/500
Matrix Compiler1: 16.33 KB object code size  11.4/9.4/[5.0]
Matrix Compiler2: 14.29 KB object code size  8.0/8.4/[3.5]

