Circuit: * D:\Users\Thomas\Documents\Projects\CG-490\SPICE Simulations\PowerSwitch V1.asc

WARNING: Specified period is not longer than the sum of Trise, Tfall, and Ton for v1.  Increasing period to 2.0018e-312
WARNING: Less than two connections to node NC_02.  This node is used by V:M1:LG.
WARNING: Less than two connections to node M1:SX.  This node is used by V:M1:_SENSE2.
Direct Newton iteration for .op point succeeded.

Date: Thu Feb 27 23:02:24 2020
Total elapsed time: 7.158 seconds.

tnom = 27
temp = 27
method = modified trap
totiter = 93750
traniter = 93733
tranpoints = 40312
accept = 28000
rejected = 12312
matrix size = 126
fillins = 200
solver = Alternate
Thread vector: 71.6/40.3[4] 7.9/5.8[2] 18.5/9.3[4] 2.0/3.9[1]  2592/500
Matrix Compiler1: 25.17 KB object code size  9.1/7.3/[3.2]
Matrix Compiler2: 16.07 KB object code size  4.2/5.4/[1.6]

