Circuit: * C:\Users\ekultho\Documents\Personal\CG 490\SPICE Simulations\PowerSwitch V1.asc

WARNING: Specified period is not longer than the sum of Trise, Tfall, and Ton for v1.  Increasing period to 3.2936e-313
WARNING: Less than two connections to node NC_02.  This node is used by V:M1:LG.
WARNING: Less than two connections to node M1:SX.  This node is used by V:M1:_SENSE2.
Direct Newton iteration for .op point succeeded.

Date: Wed Oct 30 12:00:58 2019
Total elapsed time: 3.222 seconds.

tnom = 27
temp = 27
method = Gear
totiter = 72115
traniter = 72098
tranpoints = 31535
accept = 22052
rejected = 9483
matrix size = 126
fillins = 192
solver = Alternate
Thread vector: 50.6/24.3[5] 9.5/3.3[5] 20.0/4.3[5] 2.0/2.9[1]  2592/500
Matrix Compiler1: 24.36 KB object code size  13.2/8.7/[4.4]
Matrix Compiler2: 15.90 KB object code size  5.6/5.9/[1.7]

