Circuit: * C:\Users\Thomas Kulin\Documents\Projects\CG-490\SPICE Simulations\PowerSwitch V1.asc

WARNING: Specified period is not longer than the sum of Trise, Tfall, and Ton for v1.  Increasing period to 1.25357e-313
Direct Newton iteration for .op point succeeded.

Date: Mon Oct 28 21:21:29 2019
Total elapsed time: 6.083 seconds.

tnom = 27
temp = 27
method = trap
totiter = 130522
traniter = 130517
tranpoints = 51688
accept = 36933
rejected = 14755
matrix size = 69
fillins = 78
solver = Alternate
Thread vector: 56.9/20.2[3] 4.9/3.8[3] 10.4/5.0[3] 1.4/2.4[1]  2592/500
Matrix Compiler1: 12.51 KB object code size  4.1/2.7/[1.7]
Matrix Compiler2: 9.13 KB object code size  1.8/2.1/[1.1]

