Circuit: * C:\Users\ekultho\Documents\Personal\CG 490\SPICE Simulations\Push Pull Config.asc

WARNING: Specified period is not longer than the sum of Trise, Tfall, and Ton for v3.  Increasing period to 2.31251e-312
WARNING: Specified period is not longer than the sum of Trise, Tfall, and Ton for v1.  Increasing period to 2.31251e-312
Instance "m:m2:1": Width narrower than recommended for a level 3 MOSFET.
Instance "m:m1:1": Width narrower than recommended for a level 3 MOSFET.
Direct Newton iteration for .op point succeeded.

Date: Thu Oct 24 12:49:29 2019
Total elapsed time: 0.185 seconds.

tnom = 27
temp = 27
method = modified trap
totiter = 13610
traniter = 13592
tranpoints = 6256
accept = 4666
rejected = 1590
matrix size = 34
fillins = 22
solver = Alternate
Matrix Compiler1: 5.29 KB object code size  0.9/0.7/[0.5]
Matrix Compiler2: off  [0.4]/0.6/0.4

