Circuit: * C:\Users\Thomas Kulin\Documents\Projects\CG-490\SPICE Simulations\TVS Diode Config.asc

WARNING: Specified period is not longer than the sum of Trise, Tfall, and Ton for v1.  Increasing period to 0.0050002
Instance "m:m1:1": Width narrower than recommended for a level 3 MOSFET.
Direct Newton iteration for .op point succeeded.
Heightened Def Con from 0.001 to 0.00100001

Date: Mon Oct 28 08:59:46 2019
Total elapsed time: 0.810 seconds.

tnom = 27
temp = 27
method = modified trap
totiter = 97612
traniter = 97582
tranpoints = 47417
accept = 33745
rejected = 13673
matrix size = 21
fillins = 4
solver = Normal
Matrix Compiler1: 1.88 KB object code size  0.4/0.2/[0.1]
Matrix Compiler2: off  [0.2]/0.3/0.4

