Circuit: * C:\Users\Thomas Kulin\Documents\Projects\CG-490\FEMM Simulations\SPICE Dependencies\offTime.asc

Direct Newton iteration for .op point succeeded.

Date: Wed Nov 13 20:41:08 2019
Total elapsed time: 1.656 seconds.

tnom = 27
temp = 27
method = modified trap
totiter = 570723
traniter = 570700
tranpoints = 283866
accept = 202249
rejected = 81617
matrix size = 5
fillins = 0
solver = Alternate
Matrix Compiler1: 370 bytes object code size  0.1/0.1/[0.1]
Matrix Compiler2: 419 bytes object code size  0.1/0.1/[0.1]

