Circuit: * D:\Users\Thomas\Documents\Projects\CG-490\FEMM Simulations\SPICE Dependencies\offTime.asc

Direct Newton iteration for .op point succeeded.

Date: Thu Feb 27 17:49:09 2020
Total elapsed time: 2.496 seconds.

tnom = 27
temp = 27
method = modified trap
totiter = 536099
traniter = 536075
tranpoints = 258971
accept = 185293
rejected = 73678
matrix size = 5
fillins = 0
solver = Alternate
Matrix Compiler1: 370 bytes object code size  0.1/0.2/[0.0]
Matrix Compiler2: 419 bytes object code size  0.1/0.1/[0.0]

