Circuit: * C:\Users\ekultho\Documents\Personal\CG 490\FEMM Simulations\SPICE Dependencies\offTime.asc

Direct Newton iteration for .op point succeeded.

Date: Tue Nov 12 15:44:43 2019
Total elapsed time: 0.551 seconds.

tnom = 27
temp = 27
method = modified trap
totiter = 160411
traniter = 160387
tranpoints = 78729
accept = 57196
rejected = 21533
matrix size = 5
fillins = 0
solver = Alternate
Matrix Compiler1:      16 opcodes  0.1/[0.0]/0.1
Matrix Compiler2: 419 bytes object code size  0.1/0.7/[0.1]

