Circuit: * C:\Users\Thomas Kulin\Documents\Projects\CG-490\FEMM Simulations\SPICE Dependencies\offTime.asc

Direct Newton iteration for .op point succeeded.

Date: Tue Jun 23 20:36:19 2020
Total elapsed time: 1.405 seconds.

tnom = 27
temp = 27
method = modified trap
totiter = 540682
traniter = 540659
tranpoints = 268944
accept = 191244
rejected = 77700
matrix size = 5
fillins = 0
solver = Alternate
Matrix Compiler1: 370 bytes object code size  0.1/0.1/[0.1]
Matrix Compiler2: off  [0.1]/0.1/0.1

