Circuit: * D:\Users\Thomas\Documents\Projects\CG-490\FEMM Simulations\SPICE Dependencies\offTime.asc

Direct Newton iteration for .op point succeeded.

Date: Wed Nov 13 22:19:32 2019
Total elapsed time: 1.422 seconds.

tnom = 27
temp = 27
method = modified trap
totiter = 559656
traniter = 559633
tranpoints = 278389
accept = 198002
rejected = 80387
matrix size = 5
fillins = 0
solver = Alternate
Matrix Compiler1: 370 bytes object code size  0.1/0.1/[0.1]
Matrix Compiler2:      30 opcodes  0.0/[0.0]/0.1

