Circuit: * C:\Users\Thomas\Documents\Projects\CG-490\FEMM Simulations\SPICE Dependencies\offTime.asc

Direct Newton iteration for .op point succeeded.

Date: Mon Jul 26 20:09:34 2021
Total elapsed time: 0.127 seconds.

tnom = 27
temp = 27
method = Gear
totiter = 49538
traniter = 49512
tranpoints = 24728
accept = 18274
rejected = 6454
matrix size = 5
fillins = 0
solver = Alternate
Matrix Compiler1: 370 bytes object code size  0.1/0.1/[0.1]
Matrix Compiler2: off  [0.1]/0.1/0.1

