Circuit: * C:\Users\ekultho\Documents\Personal\CG 490\FEMM Simulations\SPICE Dependencies\offTime.asc

Direct Newton iteration for .op point succeeded.

Date: Thu Nov 14 14:32:57 2019
Total elapsed time: 1.502 seconds.

tnom = 27
temp = 27
method = modified trap
totiter = 536822
traniter = 536799
tranpoints = 267017
accept = 189763
rejected = 77254
matrix size = 5
fillins = 0
solver = Alternate
Matrix Compiler1:      16 opcodes  0.2/[0.1]/0.1
Matrix Compiler2: 419 bytes object code size  0.1/0.1/[0.1]

