Circuit: * C:\Users\ekultho\Documents\Personal\CG 490\FEMM Simulations\SPICE Dependencies\onTime.asc

WARNING: Less than two connections to node NC_02.  This node is used by V:M1:LG.
WARNING: Less than two connections to node M1:SX.  This node is used by V:M1:_SENSE2.
Early termination of direct N-R iteration.
Direct Newton iteration failed to find .op point.  (Use ".option noopiter" to skip.)
Starting Gmin stepping
Increasing initial diagonal Gmin to 100
Increasing initial diagonal Gmin to 1000
Gmin = 1000
Gmin = 107.374
Gmin = 11.5292
Gmin = 1.23794
Gmin = 0.132923
Gmin = 0.0142725
Gmin = 0.0015325
Gmin = 0.00016455
Gmin = 1.76685e-005
Gmin = 1.89714e-006
Gmin = 2.03704e-007
Gmin = 2.18725e-008
Gmin = 2.34854e-009
Gmin = 2.52173e-010
Gmin = 2.70769e-011
Gmin = 2.90735e-012
Gmin = 3.12175e-013
Gmin = 0
Gmin stepping succeeded in finding the operating point.


Date: Tue Nov 12 15:44:08 2019
Total elapsed time: 0.560 seconds.

tnom = 27
temp = 27
method = modified trap
totiter = 5462
traniter = 4839
tranpoints = 1527
accept = 1282
rejected = 245
matrix size = 123
fillins = 211
solver = Alternate
Thread vector: 49.0/18.5[5] 6.2/2.9[5] 17.7/4.2[5] 1.8/3.1[1]  2592/500
Matrix Compiler1:    1147 opcodes  5.0/[4.5]/6.8
Matrix Compiler2: 15.99 KB object code size  4.0/4.6/[1.0]

