Circuit: * D:\Users\Thomas\Documents\Projects\CG-490\FEMM Simulations\SPICE Dependencies\onTime.asc

WARNING: Less than two connections to node NC_02.  This node is used by V:M1:LG.
WARNING: Less than two connections to node M1:SX.  This node is used by V:M1:_SENSE2.
Early termination of direct N-R iteration.
Direct Newton iteration failed to find .op point.  (Use ".option noopiter" to skip.)
Starting Gmin stepping
Increasing initial diagonal Gmin to 100
Increasing initial diagonal Gmin to 1000
Gmin = 1000
Gmin = 107.374
Gmin = 11.5292
Gmin = 1.23794
Gmin = 0.132923
Gmin = 0.0142725
Gmin = 0.0015325
Gmin = 0.00016455
Gmin = 1.76685e-005
Gmin = 1.89714e-006
Gmin = 2.03704e-007
Gmin = 2.18725e-008
Gmin = 2.34854e-009
Gmin = 2.52173e-010
Gmin = 2.70769e-011
Gmin = 2.90735e-012
Gmin = 3.12175e-013
Gmin = 0
Gmin stepping succeeded in finding the operating point.


Date: Wed Nov 13 22:19:29 2019
Total elapsed time: 1.239 seconds.

tnom = 27
temp = 27
method = modified trap
totiter = 10747
traniter = 10124
tranpoints = 4556
accept = 4395
rejected = 161
matrix size = 123
fillins = 211
solver = Alternate
Thread vector: 55.4/23.4[4] 4.8/11.8[1] 14.9/11.7[4] 1.8/123.1[1]  2592/500
Matrix Compiler1: 26.51 KB object code size  6.8/4.7/[3.0]
Matrix Compiler2: 15.99 KB object code size  4.0/3.8/[1.5]

