Circuit: * D:\Users\Thomas\Documents\Projects\CG-490\FEMM Simulations\SPICE Dependencies\onTime.asc

WARNING: Less than two connections to node NC_02.  This node is used by V:M1:LG.
WARNING: Less than two connections to node M1:SX.  This node is used by V:M1:_SENSE2.
Direct Newton iteration failed to find .op point.  (Use ".option noopiter" to skip.)
Starting Gmin stepping
Gmin = 10
vernier = 0.5
Gmin = 1.86414
vernier = 0.25
vernier = 0.333333
Gmin = 1.0828
vernier = 0.166667
vernier = 0.0833333
vernier = 0.0416667
vernier = 0.0208333
Gmin = 0.979105
vernier = 0.0104167
vernier = 0.00520833
vernier = 0.00260417
Gmin = 0.970239
vernier = 0.00130208
vernier = 0.000651042
vernier = 0.000488281
Gmin = 0
Gmin stepping succeeded in finding the operating point.


Date: Thu Feb 27 17:49:04 2020
Total elapsed time: 3.103 seconds.

tnom = 27
temp = 27
method = modified trap
totiter = 10011
traniter = 8353
tranpoints = 4171
accept = 4126
rejected = 45
matrix size = 123
fillins = 310
solver = Alternate
Thread vector: 95.6/68.7[4] 5.5/31.1[1] 87.7/55.9[2] 2.0/71.8[1]  2592/500
Matrix Compiler1: 36.55 KB object code size  11.7/17.7/[10.0]
Matrix Compiler2: 17.99 KB object code size  7.1/8.2/[1.6]

