Circuit: * C:\Users\ekultho\Documents\Personal\CG 490\FEMM Simulations\SPICE Dependencies\onTime.asc

WARNING: Less than two connections to node NC_02.  This node is used by V:M1:LG.
WARNING: Less than two connections to node M1:SX.  This node is used by V:M1:_SENSE2.
Direct Newton iteration failed to find .op point.  (Use ".option noopiter" to skip.)
Starting Gmin stepping
Gmin = 10
Gmin = 1.07374
Gmin = 0.115292
Gmin = 0.0123794
Gmin = 0.00132923
Gmin = 0.000142725
Gmin = 1.5325e-005
Gmin = 1.6455e-006
Gmin = 1.76685e-007
Gmin = 1.89714e-008
Gmin = 2.03704e-009
Gmin = 2.18725e-010
Gmin = 2.34854e-011
Gmin = 2.52173e-012
Gmin = 2.70769e-013
Gmin = 0
Gmin stepping succeeded in finding the operating point.


Date: Fri Jan 31 16:19:52 2020
Total elapsed time: 1.649 seconds.

tnom = 27
temp = 27
method = modified trap
totiter = 9507
traniter = 9046
tranpoints = 4331
accept = 4240
rejected = 91
matrix size = 123
fillins = 184
solver = Alternate
Thread vector: 59.2/32.9[5] 7.8/3.3[5] 28.1/6.0[5] 1.9/2.9[1]  2592/500
Matrix Compiler1: 23.46 KB object code size  8.8/8.0/[5.2]
Matrix Compiler2: 15.40 KB object code size  5.3/6.0/[2.0]

